&share
 wrf_core = 'ARW',
 max_dom = 1,
 start_date = '2005-08-28_12:00:00','2008-05-19_12:00:00','2008-05-19_12:00:00','2008-05-19_12:00:00','2008-05-19_12:00:00','2008-05-19_12:00:00',
 end_date   = '2005-08-28_18:00:00','2008-05-19_18:00:00','2008-05-19_18:00:00','2008-05-19_18:00:00','2008-05-19_18:00:00','2008-05-19_18:00:00',
 interval_seconds = 21600
 io_form_geogrid = 2,
 subgrid_ratio_x = 10,
 subgrid_ratio_y = 10,
/

&geogrid
 parent_id         =   0,   1,  2,  3,  4,  5,  6,  7,  8,  9,
 parent_grid_ratio =   1,   3,  3,  3,  3,  3,  3,  3,  3,  3,
 i_parent_start    =   1,  15, 15, 15, 15, 15, 15, 15, 15, 15,
 j_parent_start    =   1,  15, 15, 15, 15, 15, 15, 15, 15, 15, 
 e_we              =  43,  43, 43, 43, 43, 43, 43, 43, 43, 43,
 e_sn              =  43,  43, 43, 43, 43, 43, 43, 43, 43, 43,
 geog_data_res     = '30s','2m','2m','2m','2m','2m','2m','2m','2m','2m',
 dx = 60,
 dy = 60,
 map_proj = 'lambert',
 ref_lat   =  39.70537,
 ref_lon   = -107.2907,
 truelat1  =  39.338,
 truelat2  =  39.338,
 stand_lon = -106.807,
 geog_data_path = '/glade/p/work/wrfhelp/WPS_GEOG/'
/

&ungrib
 out_format = 'WPS',
 prefix = 'FILE',
/

&metgrid
 fg_name = 'FILE'
 io_form_metgrid = 2, 
/
