&share
 wrf_core = 'ARW',
 max_dom = 2,
 start_date = '2006-08-01_00:00:00','2006-08-01_00:00:00',
 end_date   = '2006-08-01_12:00:00','2006-08-01_00:00:00'
 interval_seconds = 21600
 io_form_geogrid = 2,
 debug_level = 0
/
 opt_output_from_geogrid_path = './',

&geogrid
 parent_id =           1, 1,
 parent_grid_ratio =   1, 3,
 i_parent_start =      1, 27
 j_parent_start =      1, 25
 s_we           = 1, 1,
 e_we           = 116,199,
 s_sn           = 1, 1,
 e_sn           = 111,193,
 geog_data_res  = '10m','2m',
 dx = 45000,
 dy = 45000,
 map_proj = 'mercator',
 ref_lat   = 22.5
 ref_lon   = 80.50
 truelat1  =  22.0,
 truelat2  =  00.0,
 stand_lon = 80.
 geog_data_path = '/standalone/users/gill/DATA/GEOG',
/
 ref_x     = 50.,
 ref_y     = 40.,
 opt_geogrid_tbl_path = 'geogrid/'
 geog_data_path = '/mmm/users/gill/DATA/GEOG'
 geog_data_path = '/data3a/mp/gill/DATA/GEOG'
 geog_data_path = '/bouleau2/duda/geog'

&ungrib
 out_format = 'SI'
/

&metgrid
 fg_name = './FILE'
 io_form_metgrid = 2, 
/
 opt_output_from_metgrid_path = './',
 opt_metgrid_tbl_path         = 'metgrid/',
 opt_ignore_dom_center        = .false.
